data_Ca10_(_(_Si_O4_)2.54_(_S_O4_)2.18_(_P_O4_)1.28_)_(_(_O_H_)1.64_F0.21_Cl0.15_)_-_01-075-8298
#Copyright 2025 International Centre for Diffraction Data. All rights reserved.

_audit_creation_date                  2025-05-02
_audit_creation_method                'Generated by PDF-4+ 2020 4.20.0.1'

_chemical_name_systematic             'Calcium Chloride Fluoride Phosphate Silicate Sulfate Hydroxide'
_chemical_name_common                 'calcium silicate sulfate(VI) phosphate(V) hydroxide fluoride chloride'
_chemical_formula_moiety              'Ca10 ( ( Si O4 )2.54 ( S O4 )2.18 ( P O4 )1.28 ) ( ( O H )1.64 F0.21 Cl0.15 )'
_chemical_formula_sum                 'Ca10 Cl0.15 F0.21 H1.64 O25.64 P1.28 S2.18 Si2.54'
_chemical_formula_weight              1002.84

_cell_length_a                        9.496(2)
_cell_length_b                        9.496(2)
_cell_length_c                        6.920(2)
_cell_angle_alpha                     90
_cell_angle_beta                      90
_cell_angle_gamma                     120
_cell_volume                          540.40
_cell_formula_units_Z                 1.00
_symmetry_cell_setting                hexagonal
_symmetry_space_group_name_H-M        P63/m
_symmetry_Int_Tables_number           176

loop_
_symmetry_equiv_pos_site_id
_symmetry_equiv_pos_as_xyz
1 x,y,z
2 -x,-y,-z
3 -y,x-y,z
4 y,-x+y,-z
5 -x+y,-x,z
6 x-y,x,-z
7 -x,-y,z+1/2
8 x,y,-z+1/2
9 y,-x+y,z+1/2
10 -y,x-y,-z+1/2
11 x-y,x,z+1/2
12 -x+y,-x,-z+1/2

loop_
_atom_site_label
_atom_site_type_symbol
_atom_site_fract_x
_atom_site_fract_y
_atom_site_fract_z
_atom_site_U_iso_or_equiv
_atom_site_symmetry_multiplicity
_atom_site_Wyckoff_symbol
_atom_site_occupancy
Si1 Si 0.39939 0.37013 0.25 0.013 6 h 0.423
S2 S 0.39939 0.37013 0.25 0.013 6 h 0.363
P3 P 0.39939 0.37013 0.25 0.013 6 h 0.213
Ca4 Ca 0.3333 0.6667 0.00183 0.02887 4 f 1.0
Ca5 Ca 0.24567 -0.0067 0.25 0.0244 6 h 1.0
O6 O 0.3276 0.4848 0.25 0.0248 6 h 1.0
O7 O 0.5879 0.4659 0.25 0.0263 6 h 1.0
O8 O 0.346 0.2592 0.0696 0.0328 12 i 1.0
O9 O 0.0 0.0 0.1975 0.0347 4 e 0.41
F10 F 0.0 0.0 0.1975 0.0347 4 e 0.053
Cl11 Cl 0.0 0.0 0.1975 0.0347 4 e 0.037

loop_
_atom_site_aniso_label
_atom_site_aniso_U_11
_atom_site_aniso_U_12
_atom_site_aniso_U_13
_atom_site_aniso_U_22
_atom_site_aniso_U_23
_atom_site_aniso_U_33
Si1 0.0147 0.0077 0.0 0.0133 0.0 0.012
S2 0.0147 0.0077 0.0 0.0133 0.0 0.012
P3 0.0147 0.0077 0.0 0.0133 0.0 0.012
Ca4 0.0372 0.0123 0.0 0.0372 0.0 0.0123
Ca5 0.0276 0.0138 0.0 0.0281 0.0 0.0173
O6 0.0359 0.0201 0.0 0.0244 0.0 0.0208
O7 0.0186 0.0077 0.0 0.0193 0.0 0.0387
O8 0.0521 0.0271 -0.0166 0.0305 -0.007 0.0244
O9 0.017 0.0085 0.0 0.017 0.0 0.07
F10 0.017 0.0085 0.0 0.017 0.0 0.07
Cl11 0.017 0.0085 0.0 0.017 0.0 0.07

