data_Ca2_Al_(_S_O4_)0.5_(_O_H_)6_(_H2_O_)3_-_04-013-3303
#Copyright 2025 International Centre for Diffraction Data. All rights reserved.

_audit_creation_date                  2025-05-13
_audit_creation_method                'Generated by PDF-4+ 2020 4.20.0.1'

_chemical_name_systematic             'Calcium Aluminum Sulfate Hydroxide Hydrate'
_chemical_formula_moiety              'Ca2 Al ( S O4 )0.5 ( O H )6 ( H2 O )3'
_chemical_formula_sum                 'Al Ca2 H12 O11 S0.5'
_chemical_formula_weight              311.25

_cell_length_a                        5.7586(3)
_cell_length_b                        5.7586(3)
_cell_length_c                        26.7946(12)
_cell_angle_alpha                     90
_cell_angle_beta                      90
_cell_angle_gamma                     120
_cell_volume                          769.51
_cell_formula_units_Z                 3.00
_symmetry_cell_setting                rhombohedral
_symmetry_space_group_name_H-M        R-3
_symmetry_Int_Tables_number           148

loop_
_symmetry_equiv_pos_site_id
_symmetry_equiv_pos_as_xyz
1 x,y,z
2 -x,-y,-z
3 -y,x-y,z
4 y,-x+y,-z
5 -x+y,-x,z
6 x-y,x,-z
7 x+2/3,y+1/3,z+1/3
8 -x+2/3,-y+1/3,-z+1/3
9 -y+2/3,x-y+1/3,z+1/3
10 y+2/3,-x+y+1/3,-z+1/3
11 -x+y+2/3,-x+1/3,z+1/3
12 x-y+2/3,x+1/3,-z+1/3
13 x+1/3,y+2/3,z+2/3
14 -x+1/3,-y+2/3,-z+2/3
15 -y+1/3,x-y+2/3,z+2/3
16 y+1/3,-x+y+2/3,-z+2/3
17 -x+y+1/3,-x+2/3,z+2/3
18 x-y+1/3,x+2/3,-z+2/3

loop_
_atom_site_label
_atom_site_type_symbol
_atom_site_fract_x
_atom_site_fract_y
_atom_site_fract_z
_atom_site_B_iso_or_equiv
_atom_site_symmetry_multiplicity
_atom_site_Wyckoff_symbol
_atom_site_occupancy
Al1 Al 0.0 0.0 0.0 1.0111 3 a 1.0
Ca2 Ca 0.66666 0.33333 0.02134 1.17665 6 c 1.0
O3 O 0.2511 -0.0547 0.03731 1.34998 18 f 1.0
H4 H 0.211 -0.115 0.0667 3.2 18 f 1.0
O5 O 0.66666 0.33333 0.11542 3.50107 6 c 1.0
S6 S 0.0 0.0 0.4955 2.22664 6 c 0.25
O7 O 0.0 0.0 0.5486 4.61106 6 c 0.25
O8 O 0.2688 0.1821 0.4771 4.63661 18 f 0.2502
O9 O 0.2688 0.1821 0.4771 4.63661 18 f 0.1668

loop_
_atom_site_aniso_label
_atom_site_aniso_B_11
_atom_site_aniso_B_12
_atom_site_aniso_B_13
_atom_site_aniso_B_22
_atom_site_aniso_B_23
_atom_site_aniso_B_33
Al1 0.57 0.29 0.0 0.57 0.0 1.9
Ca2 0.64 0.32 0.0 0.64 0.0 2.25
O3 0.91 0.54 -0.03 1.07 0.17 2.13
O5 3.83 1.92 0.0 3.83 0.0 2.85
S6 1.96 0.98 0.0 1.96 0.0 2.76
O7 6.1 3.1 0.0 6.1 0.0 1.7
O8 3.58 1.59 0.23 4.64 -0.04 5.07
O9 3.58 1.59 0.23 4.64 -0.04 5.07

